<?xml version="1.0" encoding="UTF-8"?>

<!-- generated on 2023-03-03 14:05:01 by Eclipse SUMO netedit Version 1.16.0
-->

<routes xmlns:xsi="http://www.w3.org/2001/XMLSchema-instance" xsi:noNamespaceSchemaLocation="http://sumo.dlr.de/xsd/routes_file.xsd">
    <!-- Vehicles, persons and containers (sorted by depart) -->
    <flow id="f_0" begin="0.00" from="-E27" to="E26" end="3600.00" vehsPerHour="1800.00"/>
    <flow id="f_1" begin="0.00" from="-E27" to="E24" end="3600.00" vehsPerHour="1800.00"/>
    <flow id="f_2" begin="0.00" from="-E24" to="E25" end="3600.00" vehsPerHour="1800.00"/>
    <flow id="f_3" begin="0.00" from="-E24" to="E27" end="3600.00" vehsPerHour="1800.00"/>
    <flow id="f_4" begin="0.00" from="-E25" to="E27" end="3600.00" vehsPerHour="1800.00"/>
    <flow id="f_5" begin="0.00" from="-E25" to="E26" end="3600.00" vehsPerHour="1800.00"/>
    <flow id="f_6" begin="0.00" from="-E26" to="E24" end="3600.00" vehsPerHour="1800.00"/>
    <flow id="f_7" begin="0.00" from="-E26" to="E25" end="3600.00" vehsPerHour="1800.00"/>
</routes>
