<?xml version="1.0" encoding="UTF-8"?>

<!-- generated on 2023-03-13 09:02:56 by Eclipse SUMO netedit Version 1.16.0
<configuration xmlns:xsi="http://www.w3.org/2001/XMLSchema-instance" xsi:noNamespaceSchemaLocation="http://sumo.dlr.de/xsd/netconvertConfiguration.xsd">

    <input>
        <sumocfg-file value="C:\test\clones\TrafficSimulation\test_opt\test_opt_1.sumocfg"/>
        <route-files value="C:\test\clones\TrafficSimulation\test_opt\test_opt.rou.xml"/>
        <sumo-net-file value="C:\test\clones\TrafficSimulation\test_opt\test_opt_1.net.xml"/>
    </input>

    <output>
        <output-file value="C:\test\clones\TrafficSimulation\test_opt\test_opt_1.net.xml"/>
    </output>

    <processing>
        <geometry.min-radius.fix.railways value="false"/>
        <geometry.max-grade.fix value="false"/>
        <offset.disable-normalization value="true"/>
        <lefthand value="0"/>
    </processing>

    <junctions>
        <no-internal-links value="false"/>
        <no-turnarounds value="true"/>
        <junctions.corner-detail value="5"/>
        <junctions.limit-turn-speed value="5.50"/>
        <rectangular-lane-cut value="0"/>
    </junctions>

    <pedestrian>
        <walkingareas value="1"/>
    </pedestrian>

</configuration>
-->

<net version="1.16" junctionCornerDetail="5" walkingareas="true" limitTurnSpeed="5.50" xmlns:xsi="http://www.w3.org/2001/XMLSchema-instance" xsi:noNamespaceSchemaLocation="http://sumo.dlr.de/xsd/net_file.xsd">

    <location netOffset="-286081.53,-5527030.91" convBoundary="294.50,135.83,480.64,408.46" origBoundary="24.023652,49.857550,24.029778,49.863403" projParameter="+proj=utm +zone=35 +ellps=WGS84 +datum=WGS84 +units=m +no_defs"/>

    <type id="cycleway.lane" allow="bicycle" bikeLaneWidth="1.00"/>
    <type id="cycleway.opposite_lane" allow="bicycle" bikeLaneWidth="1.00"/>
    <type id="cycleway.opposite_track" allow="bicycle" bikeLaneWidth="1.50"/>
    <type id="cycleway.track" allow="bicycle" bikeLaneWidth="1.50"/>
    <type id="highway.bridleway" priority="1" numLanes="1" speed="2.78" allow="pedestrian" oneway="1" width="2.00"/>
    <type id="highway.bus_guideway" priority="1" numLanes="1" speed="13.89" allow="bus" oneway="1"/>
    <type id="highway.cycleway" priority="1" numLanes="1" speed="5.56" allow="bicycle" oneway="0" width="1.00"/>
    <type id="highway.footway" priority="1" numLanes="1" speed="2.78" allow="pedestrian" oneway="1" width="2.00"/>
    <type id="highway.ford" priority="1" numLanes="1" speed="2.78" allow="army" oneway="0"/>
    <type id="highway.living_street" priority="2" numLanes="1" speed="2.78" disallow="tram rail_urban rail rail_electric rail_fast ship" oneway="0"/>
    <type id="highway.motorway" priority="14" numLanes="2" speed="27.78" allow="private emergency authority army vip passenger hov taxi bus coach delivery truck trailer motorcycle evehicle custom1 custom2" oneway="1"/>
    <type id="highway.motorway_link" priority="9" numLanes="1" speed="16.67" allow="private emergency authority army vip passenger hov taxi bus coach delivery truck trailer motorcycle evehicle custom1 custom2" oneway="1"/>
    <type id="highway.path" priority="1" numLanes="1" speed="5.56" allow="pedestrian bicycle" oneway="0" width="2.00"/>
    <type id="highway.pedestrian" priority="1" numLanes="1" speed="2.78" allow="pedestrian" oneway="1" width="2.00"/>
    <type id="highway.primary" priority="12" numLanes="2" speed="13.89" disallow="pedestrian tram rail_urban rail rail_electric rail_fast ship" oneway="0" sidewalkWidth="3.00"/>
    <type id="highway.primary_link" priority="7" numLanes="1" speed="13.89" disallow="pedestrian tram rail_urban rail rail_electric rail_fast ship" oneway="0" sidewalkWidth="3.00"/>
    <type id="highway.raceway" priority="15" numLanes="2" speed="83.33" allow="vip" oneway="0"/>
    <type id="highway.residential" priority="3" numLanes="1" speed="13.89" disallow="pedestrian tram rail_urban rail rail_electric rail_fast ship" oneway="0" sidewalkWidth="2.00"/>
    <type id="highway.secondary" priority="11" numLanes="1" speed="13.89" disallow="pedestrian tram rail_urban rail rail_electric rail_fast ship" oneway="0" sidewalkWidth="3.00"/>
    <type id="highway.secondary_link" priority="6" numLanes="1" speed="13.89" disallow="pedestrian tram rail_urban rail rail_electric rail_fast ship" oneway="0" sidewalkWidth="3.00"/>
    <type id="highway.secondary|railway.tram" priority="17" numLanes="1" speed="13.89" disallow="pedestrian rail_urban rail rail_electric rail_fast ship" oneway="0" sidewalkWidth="3.00"/>
    <type id="highway.service" priority="1" numLanes="1" speed="5.56" allow="pedestrian delivery bicycle" oneway="0"/>
    <type id="highway.stairs" priority="1" numLanes="1" speed="1.39" allow="pedestrian" oneway="1" width="2.00"/>
    <type id="highway.step" priority="1" numLanes="1" speed="1.39" allow="pedestrian" oneway="1" width="2.00"/>
    <type id="highway.steps" priority="1" numLanes="1" speed="1.39" allow="pedestrian" oneway="1" width="2.00"/>
    <type id="highway.tertiary" priority="10" numLanes="1" speed="13.89" disallow="pedestrian tram rail_urban rail rail_electric rail_fast ship" oneway="0" sidewalkWidth="3.00"/>
    <type id="highway.tertiary_link" priority="5" numLanes="1" speed="13.89" disallow="pedestrian tram rail_urban rail rail_electric rail_fast ship" oneway="0" sidewalkWidth="2.00"/>
    <type id="highway.track" priority="1" numLanes="1" speed="5.56" allow="pedestrian motorcycle moped bicycle" oneway="0"/>
    <type id="highway.trunk" priority="13" numLanes="2" speed="13.89" disallow="pedestrian bicycle tram rail_urban rail rail_electric rail_fast ship" oneway="0"/>
    <type id="highway.trunk_link" priority="8" numLanes="1" speed="13.89" disallow="pedestrian bicycle tram rail_urban rail rail_electric rail_fast ship" oneway="0"/>
    <type id="highway.unclassified" priority="4" numLanes="1" speed="13.89" disallow="pedestrian tram rail_urban rail rail_electric rail_fast ship" oneway="0" sidewalkWidth="2.00"/>
    <type id="highway.unsurfaced" priority="1" numLanes="1" speed="8.33" disallow="tram rail_urban rail rail_electric rail_fast ship" oneway="0"/>
    <type id="railway.highspeed" priority="21" numLanes="1" speed="69.44" allow="rail_fast" oneway="1"/>
    <type id="railway.light_rail" priority="19" numLanes="1" speed="27.78" allow="rail_urban" oneway="1"/>
    <type id="railway.preserved" priority="16" numLanes="1" speed="27.78" allow="rail" oneway="1"/>
    <type id="railway.rail" priority="20" numLanes="1" speed="44.44" allow="rail" oneway="1"/>
    <type id="railway.subway" priority="18" numLanes="1" speed="27.78" allow="rail_urban" oneway="1"/>
    <type id="railway.tram" priority="17" numLanes="1" speed="13.89" allow="tram" oneway="1"/>

    <edge id=":J0_0" function="internal">
        <lane id=":J0_0_0" index="0" speed="6.72" length="7.20" shape="359.36,233.76 360.75,235.05 362.29,235.77 363.99,235.91 365.84,235.47"/>
        <lane id=":J0_0_1" index="1" speed="8.22" length="11.18" shape="356.90,235.82 359.06,237.82 361.46,238.93 364.10,239.14 366.96,238.46"/>
    </edge>
    <edge id=":J0_2" function="internal">
        <lane id=":J0_2_0" index="0" speed="6.87" length="7.92" shape="350.43,249.26 351.23,247.50 351.35,245.70 350.79,243.86 349.54,241.98"/>
        <lane id=":J0_2_1" index="1" speed="7.68" length="10.09" shape="350.43,249.26 352.07,246.32 352.88,243.79 352.86,241.66 351.99,239.92"/>
        <lane id=":J0_2_2" index="2" speed="8.50" length="12.53" shape="350.43,249.26 352.92,245.15 354.41,241.88 354.92,239.45 354.45,237.87"/>
    </edge>
    <edge id=":J0_5" function="internal">
        <lane id=":J0_5_0" index="0" speed="13.89" length="19.26" shape="350.43,249.26 353.87,243.97 356.64,240.49 360.15,237.95 365.84,235.47"/>
        <lane id=":J0_5_1" index="1" speed="13.89" length="19.26" shape="353.10,251.02 356.21,246.22 358.68,243.05 361.83,240.72 366.96,238.46"/>
        <lane id=":J0_5_2" index="2" speed="13.89" length="19.26" shape="355.78,252.78 358.54,248.47 360.72,245.60 363.51,243.49 368.09,241.46"/>
    </edge>
    <edge id=":J0_w0" function="walkingarea">
        <lane id=":J0_w0_0" index="0" allow="pedestrian" speed="2.78" length="13.82" width="3.20" shape="368.66,242.96 365.27,233.97 363.52,234.30 362.71,234.19 361.95,233.89 361.24,233.41 360.58,232.74 348.31,243.00 349.47,244.89 349.71,245.79 349.73,246.68 349.53,247.54 349.09,248.38 357.11,253.66 358.96,250.77 360.39,248.58 361.74,246.88 363.35,245.50 365.54,244.25"/>
    </edge>
    <edge id=":J1_0" function="internal">
        <lane id=":J1_0_0" index="0" speed="6.61" length="7.01" shape="387.40,227.29 387.55,229.14 388.19,230.66 389.33,231.87 390.95,232.76"/>
        <lane id=":J1_0_1" index="1" speed="8.14" length="11.02" shape="384.20,227.15 384.44,230.04 385.45,232.44 387.23,234.34 389.78,235.74"/>
    </edge>
    <edge id=":J1_2" function="internal">
        <lane id=":J1_2_0" index="0" speed="6.95" length="7.20" shape="373.95,232.41 375.57,231.55 376.75,230.33 377.50,228.77 377.81,226.85"/>
        <lane id=":J1_2_1" index="1" speed="7.80" length="9.27" shape="373.95,232.41 376.99,231.10 379.18,229.76 380.52,228.39 381.00,227.00"/>
    </edge>
    <edge id=":J1_4" function="internal">
        <lane id=":J1_4_0" index="0" speed="13.89" length="15.29" shape="373.95,232.41 378.85,230.77 382.46,230.30 386.07,230.98 390.95,232.76"/>
        <lane id=":J1_4_1" index="1" speed="13.52" length="15.29" shape="375.08,235.41 379.32,233.99 382.44,233.60 385.56,234.19 389.78,235.74"/>
        <lane id=":J1_4_2" index="2" speed="12.45" length="15.29" shape="376.20,238.40 379.78,237.21 382.42,236.89 385.06,237.41 388.62,238.72"/>
    </edge>
    <edge id=":J1_w0" function="walkingarea">
        <lane id=":J1_w0_0" index="0" allow="pedestrian" speed="2.78" length="11.45" width="3.20" shape="388.03,240.21 391.53,231.27 390.07,230.37 389.57,229.77 389.22,229.07 389.03,228.27 389.00,227.36 376.21,226.78 375.83,228.63 375.43,229.38 374.89,230.01 374.21,230.52 373.39,230.92 376.77,239.90 379.07,239.09 380.87,238.64 382.41,238.54 383.95,238.78 385.74,239.34"/>
    </edge>
    <edge id=":J18_0" function="internal">
        <lane id=":J18_0_0" index="0" disallow="pedestrian" speed="13.89" length="8.61" shape="387.89,216.92 387.48,225.51"/>
        <lane id=":J18_0_1" index="1" disallow="pedestrian" speed="13.89" length="8.61" shape="384.69,216.76 384.28,225.37"/>
    </edge>
    <edge id=":J18_2" function="internal">
        <lane id=":J18_2_0" index="0" disallow="pedestrian" speed="7.25" length="7.75" shape="373.42,221.87 375.48,220.84 376.99,219.59 377.93,218.12 378.30,216.42"/>
    </edge>
    <edge id=":J18_3" function="internal">
        <lane id=":J18_3_0" index="0" speed="7.08" length="14.33" shape="373.42,221.87 378.31,220.45 381.75,220.56 383.74,222.20 384.28,225.37"/>
    </edge>
    <edge id=":J18_4" function="internal">
        <lane id=":J18_4_0" index="0" disallow="pedestrian" speed="13.89" length="8.65" shape="377.89,225.07 378.30,216.42"/>
        <lane id=":J18_4_1" index="1" disallow="pedestrian" speed="13.89" length="8.65" shape="381.09,225.22 381.50,216.59"/>
    </edge>
    <edge id=":J18_w0" function="walkingarea">
        <lane id=":J18_w0_0" index="0" allow="pedestrian" speed="2.78" length="9.88" width="3.20" shape="372.84,220.37 374.00,223.36 376.29,225.00 379.49,225.15 382.68,225.29 385.88,225.44 389.08,225.58"/>
    </edge>
    <edge id=":J19_0" function="internal">
        <lane id=":J19_0_0" index="0" disallow="pedestrian" speed="13.89" length="0.33" shape="389.72,181.70 389.71,182.05"/>
        <lane id=":J19_0_1" index="1" disallow="pedestrian" speed="13.89" length="0.33" shape="386.52,181.57 386.51,181.88"/>
    </edge>
    <edge id=":J19_2" function="internal">
        <lane id=":J19_2_0" index="0" disallow="pedestrian" speed="13.89" length="0.26" shape="380.12,181.55 380.13,181.31"/>
        <lane id=":J19_2_1" index="1" disallow="pedestrian" speed="13.89" length="0.26" shape="383.31,181.71 383.33,181.44"/>
    </edge>
    <edge id=":J2_0" function="internal">
        <lane id=":J2_0_0" index="0" speed="6.71" length="7.12" shape="401.17,293.39 399.76,292.13 398.22,291.44 396.55,291.31 394.74,291.75"/>
        <lane id=":J2_0_1" index="1" speed="8.22" length="11.08" shape="403.59,291.30 401.40,289.34 399.00,288.27 396.39,288.08 393.58,288.77"/>
    </edge>
    <edge id=":J2_2" function="internal">
        <lane id=":J2_2_0" index="0" speed="6.61" length="7.06" shape="407.83,280.57 407.09,282.28 406.95,283.94 407.39,285.55 408.42,287.10"/>
        <lane id=":J2_2_1" index="1" speed="7.48" length="9.28" shape="407.83,280.57 406.30,283.50 405.48,285.91 405.38,287.81 406.00,289.20"/>
    </edge>
    <edge id=":J2_4" function="internal">
        <lane id=":J2_4_0" index="0" speed="13.89" length="15.63" shape="407.83,280.57 405.06,285.00 402.65,287.76 399.55,289.73 394.74,291.75"/>
        <lane id=":J2_4_1" index="1" speed="13.89" length="15.63" shape="405.08,278.93 402.64,282.83 400.52,285.26 397.81,286.99 393.58,288.77"/>
        <lane id=":J2_4_2" index="2" speed="13.75" length="15.63" shape="402.33,277.30 400.23,280.66 398.40,282.76 396.06,284.25 392.42,285.79"/>
    </edge>
    <edge id=":J2_w0" function="walkingarea">
        <lane id=":J2_w0_0" index="0" allow="pedestrian" speed="2.78" length="11.49" width="3.20" shape="399.96,294.44 409.63,286.05 408.74,284.56 408.58,283.79 408.60,283.01 408.81,282.20 409.21,281.38 400.95,276.48 399.60,278.70 398.47,280.32 397.34,281.51 396.00,282.45 394.24,283.32 391.83,284.30 395.32,293.25 397.03,292.91 397.83,293.02 398.58,293.31 399.29,293.79"/>
    </edge>
    <edge id=":J20_0" function="internal">
        <lane id=":J20_0_0" index="0" disallow="pedestrian" speed="7.43" length="7.62" shape="387.67,305.08 385.68,306.23 384.23,307.54 383.33,309.00 382.98,310.61"/>
    </edge>
    <edge id=":J20_1" function="internal">
        <lane id=":J20_1_0" index="0" speed="7.00" length="14.47" shape="387.67,305.08 382.85,306.85 379.45,306.92 377.46,305.30 376.89,301.99"/>
    </edge>
    <edge id=":J20_2" function="internal">
        <lane id=":J20_2_0" index="0" disallow="pedestrian" speed="13.89" length="8.41" shape="383.29,302.20 382.98,310.61"/>
        <lane id=":J20_2_1" index="1" disallow="pedestrian" speed="13.89" length="8.41" shape="380.09,302.09 379.79,310.48"/>
    </edge>
    <edge id=":J20_4" function="internal">
        <lane id=":J20_4_0" index="0" disallow="pedestrian" speed="13.89" length="8.35" shape="373.39,310.21 373.69,301.88"/>
        <lane id=":J20_4_1" index="1" disallow="pedestrian" speed="13.89" length="8.35" shape="376.59,310.34 376.89,301.99"/>
    </edge>
    <edge id=":J20_w0" function="walkingarea">
        <lane id=":J20_w0_0" index="0" allow="pedestrian" speed="2.78" length="9.73" width="3.20" shape="388.36,306.53 386.99,303.63 384.89,302.25 381.69,302.14 378.49,302.04 375.29,301.93 372.09,301.83"/>
    </edge>
    <edge id=":J21_0" function="internal">
        <lane id=":J21_0_0" index="0" disallow="pedestrian" speed="13.89" length="0.31" shape="380.95,358.76 380.94,359.07"/>
        <lane id=":J21_0_1" index="1" disallow="pedestrian" speed="13.89" length="0.31" shape="377.75,358.63 377.74,358.93"/>
    </edge>
    <edge id=":J21_2" function="internal">
        <lane id=":J21_2_0" index="0" disallow="pedestrian" speed="13.89" length="0.29" shape="371.35,358.65 371.36,358.36"/>
        <lane id=":J21_2_1" index="1" disallow="pedestrian" speed="13.89" length="0.29" shape="374.54,358.79 374.56,358.49"/>
    </edge>
    <edge id=":J22_0" function="internal">
        <lane id=":J22_0_0" index="0" disallow="pedestrian" speed="8.67" length="8.29" shape="408.40,306.67 406.53,304.61 404.81,303.16 403.23,302.30 401.79,302.04"/>
    </edge>
    <edge id=":J22_1" function="internal">
        <lane id=":J22_1_0" index="0" disallow="pedestrian" speed="13.89" length="9.01" shape="410.87,304.63 405.02,297.83"/>
        <lane id=":J22_1_1" index="1" disallow="pedestrian" speed="13.89" length="9.01" shape="413.34,302.59 407.44,295.73"/>
    </edge>
    <edge id=":J22_3" function="internal">
        <lane id=":J22_3_0" index="0" disallow="pedestrian" speed="13.89" length="9.17" shape="412.27,291.53 418.27,298.51"/>
        <lane id=":J22_3_1" index="1" disallow="pedestrian" speed="13.89" length="9.17" shape="409.86,293.63 415.80,300.55"/>
    </edge>
    <edge id=":J22_5" function="internal">
        <lane id=":J22_5_0" index="0" speed="7.10" length="3.83" shape="409.86,293.63 411.81,296.92"/>
    </edge>
    <edge id=":J22_6" function="internal">
        <lane id=":J22_6_0" index="0" speed="7.10" length="12.87" shape="411.81,296.92 411.96,297.16 411.32,299.74 407.93,301.36 401.79,302.04"/>
    </edge>
    <edge id=":J22_w0" function="walkingarea">
        <lane id=":J22_w0_0" index="0" allow="pedestrian" speed="2.78" length="9.91" width="3.20" shape="413.48,290.48 411.06,292.58 408.65,294.68 406.23,296.78 403.82,298.88 401.75,300.44 401.83,303.64"/>
    </edge>
    <edge id=":J23_0" function="internal">
        <lane id=":J23_0_0" index="0" disallow="pedestrian" speed="13.89" length="8.54" shape="445.04,345.99 443.09,344.41 441.27,343.93 439.44,343.44 437.49,341.86"/>
        <lane id=":J23_0_1" index="1" disallow="pedestrian" speed="13.89" length="8.54" shape="447.51,343.95 445.56,342.37 443.73,341.89 441.91,341.40 439.95,339.82"/>
        <lane id=":J23_0_2" index="2" disallow="pedestrian" speed="13.89" length="8.54" shape="447.51,343.95 442.42,337.79"/>
    </edge>
    <edge id=":J23_3" function="internal">
        <lane id=":J23_3_0" index="0" disallow="pedestrian" speed="13.89" length="8.00" shape="447.35,333.71 452.45,339.88"/>
        <lane id=":J23_3_1" index="1" disallow="pedestrian" speed="13.89" length="8.00" shape="444.89,335.75 449.98,341.92"/>
    </edge>
    <edge id=":J24_0" function="internal">
        <lane id=":J24_0_0" index="0" disallow="pedestrian" speed="13.89" length="8.59" shape="346.00,237.75 340.51,231.30"/>
        <lane id=":J24_0_1" index="1" disallow="pedestrian" speed="13.89" length="8.59" shape="348.45,235.69 342.88,229.15"/>
        <lane id=":J24_0_2" index="2" disallow="pedestrian" speed="13.89" length="8.59" shape="350.91,233.64 345.26,227.01"/>
    </edge>
    <edge id=":J24_3" function="internal">
        <lane id=":J24_3_0" index="0" speed="7.75" length="3.73" shape="350.91,233.64 349.32,230.26"/>
    </edge>
    <edge id=":J24_7" function="internal">
        <lane id=":J24_7_0" index="0" speed="7.75" length="16.00" shape="349.32,230.26 350.89,227.70 355.62,225.95 363.51,225.01"/>
    </edge>
    <edge id=":J24_4" function="internal">
        <lane id=":J24_4_0" index="0" disallow="pedestrian" speed="10.09" length="11.17" shape="354.75,218.42 357.58,221.36 359.99,223.44 361.96,224.65 363.51,225.01"/>
    </edge>
    <edge id=":J24_5" function="internal">
        <lane id=":J24_5_0" index="0" disallow="pedestrian" speed="13.89" length="9.73" shape="352.38,220.57 353.84,222.96 354.15,225.01 354.43,227.08 355.82,229.54"/>
        <lane id=":J24_5_1" index="1" disallow="pedestrian" speed="13.89" length="9.73" shape="350.00,222.72 351.44,225.07 351.74,227.11 352.00,229.16 353.36,231.59"/>
    </edge>
    <edge id=":J24_w0" function="walkingarea">
        <lane id=":J24_w0_0" index="0" allow="pedestrian" speed="2.78" length="14.46" width="3.20" shape="344.77,238.77 347.23,236.72 349.68,234.67 352.14,232.61 354.59,230.56 357.05,228.51 363.60,226.60 363.42,223.41"/>
    </edge>
    <edge id=":J25_0" function="internal">
        <lane id=":J25_0_0" index="0" disallow="pedestrian" speed="13.89" length="8.00" shape="313.33,201.23 307.96,195.30"/>
        <lane id=":J25_0_1" index="1" disallow="pedestrian" speed="13.89" length="8.00" shape="315.70,199.09 310.34,193.16"/>
        <lane id=":J25_0_2" index="2" disallow="pedestrian" speed="13.89" length="8.00" shape="318.08,196.94 312.71,191.01"/>
    </edge>
    <edge id=":J25_3" function="internal">
        <lane id=":J25_3_0" index="0" disallow="pedestrian" speed="13.89" length="8.61" shape="319.83,184.57 321.85,186.06 323.70,186.46 325.55,186.86 327.57,188.36"/>
        <lane id=":J25_3_1" index="1" disallow="pedestrian" speed="13.89" length="8.61" shape="317.46,186.71 319.48,188.20 321.33,188.61 323.17,189.01 325.20,190.50"/>
        <lane id=":J25_3_2" index="2" disallow="pedestrian" speed="13.89" length="8.61" shape="315.08,188.86 317.11,190.35 318.95,190.75 320.80,191.16 322.82,192.65"/>
        <lane id=":J25_3_3" index="3" disallow="pedestrian" speed="13.89" length="8.61" shape="315.08,188.86 320.45,194.79"/>
    </edge>
    <edge id=":J3_0" function="internal">
        <lane id=":J3_0_0" index="0" speed="6.76" length="6.79" shape="387.01,294.77 385.46,295.61 384.33,296.77 383.63,298.23 383.36,300.01"/>
        <lane id=":J3_0_1" index="1" speed="7.64" length="8.88" shape="387.01,294.77 384.04,296.08 381.91,297.37 380.62,298.65 380.16,299.90"/>
    </edge>
    <edge id=":J3_2" function="internal">
        <lane id=":J3_2_0" index="0" speed="13.72" length="14.81" shape="387.01,294.77 382.22,296.45 378.66,296.94 375.12,296.25 370.40,294.37"/>
        <lane id=":J3_2_1" index="1" speed="12.70" length="14.81" shape="385.84,291.79 381.76,293.22 378.72,293.63 375.70,293.04 371.67,291.43"/>
        <lane id=":J3_2_2" index="2" speed="11.59" length="14.81" shape="384.68,288.81 381.30,289.99 378.78,290.33 376.28,289.83 372.94,288.50"/>
    </edge>
    <edge id=":J3_5" function="internal">
        <lane id=":J3_5_0" index="0" speed="6.64" length="6.73" shape="373.76,299.69 373.60,297.93 372.99,296.46 371.92,295.27 370.40,294.37"/>
        <lane id=":J3_5_1" index="1" speed="8.17" length="10.58" shape="376.96,299.80 376.71,297.03 375.74,294.71 374.06,292.85 371.67,291.43"/>
    </edge>
    <edge id=":J3_w0" function="walkingarea">
        <lane id=":J3_w0_0" index="0" allow="pedestrian" speed="2.78" length="11.19" width="3.20" shape="387.59,296.26 384.10,287.32 381.95,288.10 380.27,288.56 378.81,288.67 377.36,288.46 375.69,287.91 373.58,287.03 369.76,295.84 371.14,296.74 371.61,297.33 371.94,298.01 372.12,298.78 372.17,299.64 384.96,300.06 385.29,298.39 385.66,297.71 386.17,297.12 386.81,296.64"/>
    </edge>

    <edge id="-E0" from="J0" to="J24" priority="-1">
        <lane id="-E0_0" index="0" speed="13.89" length="5.51" shape="349.54,241.98 346.00,237.75"/>
        <lane id="-E0_1" index="1" speed="13.89" length="5.51" shape="351.99,239.92 348.45,235.69"/>
        <lane id="-E0_2" index="2" speed="13.89" length="5.51" shape="354.45,237.87 350.91,233.64"/>
    </edge>
    <edge id="-E1" from="J1" to="J18" priority="-1">
        <lane id="-E1_0" index="0" speed="13.89" length="1.78" shape="377.81,226.85 377.89,225.07"/>
        <lane id="-E1_1" index="1" speed="13.89" length="1.78" shape="381.00,227.00 381.09,225.22"/>
    </edge>
    <edge id="-E15" from="J19" to="J18" priority="-1">
        <lane id="-E15_0" index="0" disallow="pedestrian" speed="13.89" length="34.92" shape="389.71,182.05 387.89,216.92"/>
        <lane id="-E15_1" index="1" disallow="pedestrian" speed="13.89" length="34.92" shape="386.51,181.88 384.69,216.76"/>
    </edge>
    <edge id="-E17" from="J21" to="J20" priority="-1">
        <lane id="-E17_0" index="0" disallow="pedestrian" speed="13.89" length="48.19" shape="371.36,358.36 373.39,310.21"/>
        <lane id="-E17_1" index="1" disallow="pedestrian" speed="13.89" length="48.19" shape="374.56,358.49 376.59,310.34"/>
    </edge>
    <edge id="-E19" from="J23" to="J22" priority="-1">
        <lane id="-E19_0" index="0" disallow="pedestrian" speed="13.89" length="45.66" shape="437.49,341.86 408.40,306.67"/>
        <lane id="-E19_1" index="1" disallow="pedestrian" speed="13.89" length="45.66" shape="439.95,339.82 410.87,304.63"/>
        <lane id="-E19_2" index="2" disallow="pedestrian" speed="13.89" length="45.66" shape="442.42,337.79 413.34,302.59"/>
    </edge>
    <edge id="-E2" from="J2" to="J22" priority="-1">
        <lane id="-E2_0" index="0" speed="13.89" length="5.87" shape="408.42,287.10 412.27,291.53"/>
        <lane id="-E2_1" index="1" speed="13.89" length="5.87" shape="406.00,289.20 409.86,293.63"/>
    </edge>
    <edge id="-E21" from="J25" to="J24" priority="-1">
        <lane id="-E21_0" index="0" disallow="pedestrian" speed="13.89" length="40.53" shape="327.57,188.36 354.75,218.42"/>
        <lane id="-E21_1" index="1" disallow="pedestrian" speed="13.89" length="40.53" shape="325.20,190.50 352.38,220.57"/>
        <lane id="-E21_2" index="2" disallow="pedestrian" speed="13.89" length="40.53" shape="322.82,192.65 350.00,222.72"/>
        <lane id="-E21_3" index="3" disallow="pedestrian" speed="13.89" length="40.53" shape="320.45,194.79 347.63,224.86"/>
    </edge>
    <edge id="-E24" from="J26" to="J23" priority="-1">
        <lane id="-E24_0" index="0" disallow="pedestrian" speed="13.89" length="50.12" shape="476.94,384.65 445.04,345.99"/>
        <lane id="-E24_1" index="1" disallow="pedestrian" speed="13.89" length="50.12" shape="479.41,382.62 447.51,343.95"/>
    </edge>
    <edge id="-E25" from="J27" to="J21" priority="-1">
        <lane id="-E25_0" index="0" disallow="pedestrian" speed="13.89" length="49.65" shape="369.16,408.25 371.35,358.65"/>
        <lane id="-E25_1" index="1" disallow="pedestrian" speed="13.89" length="49.65" shape="372.36,408.39 374.54,358.79"/>
    </edge>
    <edge id="-E26" from="J28" to="J19" priority="-1">
        <lane id="-E26_0" index="0" disallow="pedestrian" speed="13.89" length="45.71" shape="391.58,136.02 389.72,181.70"/>
        <lane id="-E26_1" index="1" disallow="pedestrian" speed="13.89" length="45.71" shape="388.38,135.89 386.52,181.57"/>
    </edge>
    <edge id="-E27" from="J29" to="J25" priority="-1">
        <lane id="-E27_0" index="0" disallow="pedestrian" speed="13.89" length="28.91" shape="300.43,163.13 319.83,184.57"/>
        <lane id="-E27_1" index="1" disallow="pedestrian" speed="13.89" length="28.91" shape="298.06,165.28 317.46,186.71"/>
        <lane id="-E27_2" index="2" disallow="pedestrian" speed="13.89" length="28.91" shape="295.69,167.43 315.08,188.86"/>
    </edge>
    <edge id="-E3" from="J3" to="J20" priority="-1">
        <lane id="-E3_0" index="0" speed="13.89" length="2.19" shape="383.36,300.01 383.29,302.20"/>
        <lane id="-E3_1" index="1" speed="13.89" length="2.19" shape="380.16,299.90 380.09,302.09"/>
    </edge>
    <edge id="E0" from="J24" to="J0" priority="-1">
        <lane id="E0_0" index="0" speed="13.89" length="5.51" shape="355.82,229.54 359.36,233.76"/>
        <lane id="E0_1" index="1" speed="13.89" length="5.51" shape="353.36,231.59 356.90,235.82"/>
    </edge>
    <edge id="E1" from="J18" to="J1" priority="-1">
        <lane id="E1_0" index="0" speed="13.89" length="1.78" shape="387.48,225.51 387.40,227.29"/>
        <lane id="E1_1" index="1" speed="13.89" length="1.78" shape="384.28,225.37 384.20,227.15"/>
    </edge>
    <edge id="E15" from="J18" to="J19" priority="-1">
        <lane id="E15_0" index="0" disallow="pedestrian" speed="13.89" length="34.92" shape="378.30,216.42 380.12,181.55"/>
        <lane id="E15_1" index="1" disallow="pedestrian" speed="13.89" length="34.92" shape="381.50,216.59 383.31,181.71"/>
    </edge>
    <edge id="E17" from="J20" to="J21" priority="-1">
        <lane id="E17_0" index="0" disallow="pedestrian" speed="13.89" length="48.19" shape="382.98,310.61 380.95,358.76"/>
        <lane id="E17_1" index="1" disallow="pedestrian" speed="13.89" length="48.19" shape="379.79,310.48 377.75,358.63"/>
    </edge>
    <edge id="E19" from="J22" to="J23" priority="-1">
        <lane id="E19_0" index="0" disallow="pedestrian" speed="13.89" length="45.66" shape="418.27,298.51 447.35,333.71"/>
        <lane id="E19_1" index="1" disallow="pedestrian" speed="13.89" length="45.66" shape="415.80,300.55 444.89,335.75"/>
    </edge>
    <edge id="E2" from="J22" to="J2" priority="-1">
        <lane id="E2_0" index="0" speed="13.89" length="5.87" shape="405.02,297.83 401.17,293.39"/>
        <lane id="E2_1" index="1" speed="13.89" length="5.87" shape="407.44,295.73 403.59,291.30"/>
    </edge>
    <edge id="E21" from="J24" to="J25" priority="-1">
        <lane id="E21_0" index="0" disallow="pedestrian" speed="13.89" length="40.53" shape="340.51,231.30 313.33,201.23"/>
        <lane id="E21_1" index="1" disallow="pedestrian" speed="13.89" length="40.53" shape="342.88,229.15 315.70,199.09"/>
        <lane id="E21_2" index="2" disallow="pedestrian" speed="13.89" length="40.53" shape="345.26,227.01 318.08,196.94"/>
    </edge>
    <edge id="E24" from="J23" to="J26" priority="-1">
        <lane id="E24_0" index="0" disallow="pedestrian" speed="13.89" length="50.12" shape="452.45,339.88 484.34,378.55"/>
        <lane id="E24_1" index="1" disallow="pedestrian" speed="13.89" length="50.12" shape="449.98,341.92 481.87,380.58"/>
    </edge>
    <edge id="E25" from="J21" to="J27" priority="-1">
        <lane id="E25_0" index="0" disallow="pedestrian" speed="13.89" length="49.65" shape="380.94,359.07 378.76,408.67"/>
        <lane id="E25_1" index="1" disallow="pedestrian" speed="13.89" length="49.65" shape="377.74,358.93 375.56,408.53"/>
    </edge>
    <edge id="E26" from="J19" to="J28" priority="-1">
        <lane id="E26_0" index="0" disallow="pedestrian" speed="13.89" length="45.71" shape="380.13,181.31 381.98,135.64"/>
        <lane id="E26_1" index="1" disallow="pedestrian" speed="13.89" length="45.71" shape="383.33,181.44 385.18,135.77"/>
    </edge>
    <edge id="E27" from="J25" to="J29" priority="-1">
        <lane id="E27_0" index="0" disallow="pedestrian" speed="13.89" length="28.91" shape="307.96,195.30 288.57,173.87"/>
        <lane id="E27_1" index="1" disallow="pedestrian" speed="13.89" length="28.91" shape="310.34,193.16 290.94,171.72"/>